*SPEF "IEEE 1481-1998"
*DESIGN "booth_multiplier"
*DATE "Tue Jun 23 10:31:39 2026"
*VENDOR "Cadence Design Systems, Inc."
*PROGRAM "Innovus"
*VERSION "21.15-s110_1"
*DESIGN_FLOW "PIN_CAP NONE" "NAME_SCOPE LOCAL"
*DIVIDER /
*DELIMITER :
*BUS_DELIMITER []
*T_UNIT 1 NS
*C_UNIT 1 PF
*R_UNIT 1 OHM
*L_UNIT 1 HENRY

// MMMC spef file for corner 'rc_corner'

*NAME_MAP

*1 FE_DBTN1_load
*2 FE_DBTN0_reset
*3 clk
*4 load
*5 reset
*6 M[3]
*7 M[2]
*8 M[1]
*9 M[0]
*10 Q[3]
*11 Q[2]
*12 Q[1]
*13 Q[0]
*14 P[6]
*15 P[5]
*16 P[4]
*17 P[3]
*18 P[2]
*19 P[1]
*20 P[0]
*21 Count[2]
*22 Count[1]
*23 Count[0]
*24 M_temp[3]
*25 M_temp[2]
*26 M_temp[1]
*27 M_temp[0]
*28 Q_minus_one
*29 n_1
*30 n_3
*31 n_4
*32 n_5
*33 n_6
*34 n_8
*35 n_9
*36 n_10
*37 n_14
*38 n_20
*39 n_21
*40 n_22
*41 n_26
*42 n_27
*43 n_28
*44 n_30
*45 n_34
*46 n_36
*47 n_37
*48 n_38
*49 n_39
*50 n_40
*51 n_41
*52 n_42
*53 n_44
*54 n_48
*55 n_50
*56 n_51
*57 n_52
*58 n_53
*59 n_56
*60 n_58
*61 n_59
*62 n_60
*63 n_67
*64 n_68
*65 n_69
*66 n_70
*67 n_71
*68 n_75
*69 n_76
*70 n_77
*71 n_79
*72 n_80
*73 n_85
*74 n_86
*75 n_87
*76 n_90
*77 n_91
*78 n_92
*79 n_93
*80 n_96
*81 n_97
*82 n_98
*83 n_124
*84 n_192
*85 n_193
*86 n_194
*87 n_199
*88 n_200
*89 n_214
*90 n_227
*91 n_229
*92 n_231
*93 n_232
*94 n_235
*95 n_236
*96 n_237
*97 n_238
*98 n_239
*99 n_240
*100 n_241
*101 n_242
*102 n_243
*103 n_245
*104 n_246
*105 n_247
*106 n_255
*107 n_257
*108 n_262
*109 n_275
*110 n_276
*111 n_277
*112 n_278
*113 n_307
*114 n_308
*115 n_309
*116 n_311
*117 n_313
*118 n_314
*119 n_316
*120 n_317
*121 n_318
*122 n_322
*123 n_323
*124 n_326
*125 n_327
*126 n_328
*127 n_329
*128 n_330
*129 n_331
*130 n_332
*131 n_333
*132 n_334
*133 n_335
*134 n_336
*135 n_337
*136 n_338
*137 n_352
*138 n_355
*139 n_356
*140 n_358
*141 n_359
*142 n_388
*143 n_389
*144 n_390
*145 n_391
*146 n_392
*147 n_393
*148 n_403
*149 n_404
*150 n_405
*151 n_407
*152 n_446
*153 n_448
*154 P[7]
*155 FE_DBTC1_load
*156 FE_DBTC0_reset
*157 A_reg\[2\]
*158 A_reg\[1\]
*159 A_reg\[0\]
*160 g10381__1617
*161 g10386__2802
*162 P_reg\[1\]
*163 P_reg\[2\]
*164 P_reg\[3\]
*165 Count_reg\[1\]
*166 g10385__5122
*167 P_reg\[0\]
*168 g10397__8246
*169 g10379__7098
*170 g10398__1881
*171 g10383__5115
*172 g10382__7482
*173 Count_reg\[0\]
*174 Q_minus_one_reg
*175 g10403__9315
*176 g10384__9945
*177 g10409__2346
*178 g10404__7410
*179 g10405__6417
*180 g10422__5477
*181 g10421__4319
*182 g10420__8428
*183 g10424__6783
*184 g10423__3680
*185 g10435__2802
*186 g10434__1705
*187 g10433__7098
*188 M_temp_reg\[3\]
*189 M_temp_reg\[2\]
*190 M_temp_reg\[0\]
*191 M_temp_reg\[1\]
*192 g10415__5115
*193 g10413
*194 Count_reg\[2\]
*195 g10436__4733
*196 g10432__6161
*197 g10431__9315
*198 g10438__9945
*199 g10437__2883
*200 g10439__2346
*201 g10442__6417
*202 g10441__5477
*203 g10440__2398
*204 g10443__5107
*205 g10449
*206 g10444__4319
*207 g10453__5526
*208 g10452__6783
*209 g10450__5122
*210 g10454__6131
*211 g10469__5115
*212 g10468__7482
*213 g10467__4733
*214 g10465__9315
*215 g10456__2883
*216 g10458__7410
*217 g10460__5477
*218 g10461__2398
*219 g10481
*220 g10480
*221 g10478
*222 g10477
*223 g10479
*224 g10484
*225 g10483
*226 fopt10502
*227 g123
*228 g124
*229 g126
*230 g131
*231 fopt10563
*232 g529
*233 g535
*234 g548
*235 g537
*236 g542
*237 g530
*238 g531
*239 g534
*240 g552
*241 g549
*242 g536
*243 g541
*244 g532
*245 g545
*246 g533
*247 g547
*248 g544
*249 g10570
*250 g133
*251 g10572
*252 g48
*253 g188
*254 g189
*255 g191
*256 g154
*257 g156
*258 g155
*259 g157
*260 g18
*261 g19
*262 g24
*263 g25
*264 g26
*265 g117
*266 g119
*267 g118
*268 g10588
*269 g10589
*270 g10590
*271 g10372__10591
*272 g10448__10592
*273 g10447__10593
*274 g546_dup
*275 g10446__10594
*276 g10399__10595
*277 g10445__10596
*278 g35
*279 g36
*280 fopt10604
*281 g10387__10606
*282 g10607
*283 g10417__10608
*284 g10451__10610
*285 g10633
*286 g10364__10634
*287 g10368__10635
*288 g10380__10636
*289 g10637
*290 fopt10638
*291 g10642
*292 g10643
*293 g10644
*294 g10645
*295 g10419__10514_dup10674
*296 g2


*PORTS

*3 I *C 23.345 52.78
*4 I *C 28.855 52.78
*5 I *C 53.94 29.725
*6 I *C 0 16.965
*7 I *C 0 22.185
*8 I *C 0 32.625
*9 I *C 0 27.405
*10 I *C 41.905 52.78
*11 I *C 53.94 37.845
*12 I *C 29.725 52.78
*13 I *C 30.305 52.78
*154 O *C 18.125 0
*14 O *C 18.705 0
*15 O *C 32.915 0
*16 O *C 53.94 25.375
*17 O *C 39.005 52.78
*18 O *C 30.015 52.78
*19 O *C 29.145 52.78
*20 O *C 53.94 30.305


*D_NET *1 0.00104211

*CONN
*I *251:B I *C 41.325 35.525 *L 0.0109 *D NOR2X4
*I *258:B I *C 40.455 37.845 *L 0.0028 *D NOR2X1
*I *260:A I *C 38.715 32.625 *L 0.00267 *D NAND2X1
*I *155:Y O *C 39.005 38.425 *L 0 *D CLKINVX6

*CAP
1 *1:1 1.44659e-05
2 *1:2 1.44659e-05
3 *1:4 0.00010151
4 *1:5 0.00010151
5 *1:6 0.000260386
6 *1:7 0.000130193
7 *1:8 0.000159125
8 *1:9 8.67954e-05
9 *1:10 1.44659e-05
10 *1:11 5.78636e-05
11 *1:12 4.33977e-05
12 *1:13 1.45014e-05
13 *1:14 2.89318e-05
14 *260:A 1.45014e-05

*RES
1 *1:14 *155:Y 1.4
2 *1:13 *260:A 0.124283
3 *1:12 *258:B 1.4
4 *1:11 *1:14 0.248575
5 *1:10 *1:13 1.4
6 *1:9 *1:12 0.372862
7 *1:9 *1:11 0.248575
8 *1:8 *1:10 0.124287
9 *1:7 *1:9 0.124287
10 *1:6 *1:8 1.24287
11 *1:6 *1:7 0.994299
12 *1:5 *1:6 1.4
13 *1:4 *1:5 0.869983
14 *1:2 *1:4 1.4
15 *1:1 *251:B 1.4
16 *1:1 *1:2 0.124287
17 *1:0 *1:1 0.0878571
*END

*D_NET *2 0.00482082

*CONN
*I *262:A I *C 14.355 35.815 *L 0.00267 *D NAND2X1
*I *156:Y O *C 24.215 35.235 *L 0 *D CLKINVX6
*I *292:B0 I *C 13.195 40.745 *L 0.0028 *D OAI211X1
*I *230:B I *C 14.645 32.915 *L 0.0166 *D NAND2X6
*I *227:A2 I *C 30.305 35.815 *L 0.00276 *D AOI31X1
*I *266:C I *C 26.825 30.595 *L 0.00285 *D NAND3X1
*I *256:B0 I *C 35.235 41.035 *L 0.0028 *D OAI21X1
*I *267:C I *C 30.015 27.405 *L 0.00285 *D NAND3X1

*CAP
1 *2:2 0.000443176
2 *2:4 0.000537183
3 *2:5 5.37183e-05
4 *2:7 0.000219696
5 *2:8 0.000373677
6 *2:11 8.64725e-05
7 *2:12 9.68792e-05
8 *2:13 0.000235278
9 *2:14 0.000138399
10 *2:15 0.000159515
11 *2:16 0.000110719
12 *2:19 0.000232022
13 *2:20 0.000138399
14 *2:21 0.000116011
15 *2:23 0.000138399
16 *2:24 0.000188518
17 *2:27 4.15196e-05
18 *2:28 0.000159515
19 *2:29 0.000139964
20 *2:30 0.000231454
21 *2:31 4.30847e-05
22 *2:32 6.91994e-05
23 *2:33 0.000231454
24 *2:35 4.29683e-05
25 *2:37 5.74697e-05
26 *2:38 0.000130513
27 *2:39 0.000130513
28 *2:40 5.80056e-05
29 *2:41 4.35042e-05
30 *2:42 8.67954e-05
31 *2:43 8.67954e-05

*RES
1 *2:43 *267:C 1.4
2 *2:42 *2:43 0.745724
3 *2:41 *2:42 1.4
4 *2:40 *2:41 0.37285
5 *2:39 *2:40 0.124283
6 *2:38 *2:39 0.994266
7 *2:37 *2:38 0.124283
8 *2:35 *2:37 0.37285
9 *2:33 *256:B0 1.4
10 *2:32 *2:35 1.4
11 *2:31 *266:C 1.4
12 *2:30 *2:33 1.9886
13 *2:29 *2:32 0.621444
14 *2:29 *2:31 0.372863
15 *2:28 *2:30 1.4
16 *2:27 *2:29 0.248578
17 *2:24 *2:28 1.36712
18 *2:23 *2:27 0.124289
19 *2:22 *227:A2 1.4
20 *2:22 *2:25 0.220714
21 *2:21 *2:24 0.248567
22 *2:20 *2:23 1.1186
23 *2:19 *2:22 1.4
24 *2:19 *2:21 0.7457
25 *2:16 *2:20 0.124289
26 *2:15 *2:19 1.24283
27 *2:14 *230:B 1.4
28 *2:13 *292:B0 1.4
29 *2:12 *2:16 0.870021
30 *2:11 *2:15 0.124283
31 *2:8 *2:14 1.24289
32 *2:8 *2:13 2.11291
33 *2:7 *2:12 1.4
34 *2:7 *2:11 0.621417
35 *2:6 *2:10 0.220714
36 *2:6 *156:Y 1.4
37 *2:5 *2:8 1.4
38 *2:4 *2:7 1.36712
39 *2:4 *2:6 1.4
40 *2:2 *2:5 0.497134
41 *2:2 *2:4 3.60422
42 *2:1 *262:A 1.4
43 *2:1 *2:2 1.4
44 *2:0 *2:1 0.220714
*END

*D_NET *3 0.0130189

*CONN
*I *174:CK I *C 27.695 22.765 *L 0.00174 *D DFFQX1
*I *159:CK I *C 39.875 22.475 *L 0.00179 *D DFFHQX1
*I *158:CK I *C 33.495 30.305 *L 0.00179 *D DFFHQX1
*I *167:CK I *C 39.875 32.915 *L 0.00179 *D DFFHQX1
*I *162:CK I *C 28.275 38.135 *L 0.00179 *D DFFHQX1
*I *164:CK I *C 39.875 40.745 *L 0.00179 *D DFFHQX1
*I *163:CK I *C 29.725 43.355 *L 0.00179 *D DFFHQX1
*P *3 I *C 23.345 52.78 *L 0
*I *173:CK I *C 19.865 43.645 *L 0.00178 *D MDFFHQX2
*I *190:CK I *C 16.385 30.595 *L 0.00153 *D DFFHQX2
*I *194:CK I *C 14.935 43.065 *L 0.00153 *D DFFHQX2
*I *157:CK I *C 16.675 22.185 *L 0.00176 *D DFFQX4
*I *191:CK I *C 9.135 30.595 *L 0.00153 *D DFFHQX2
*I *189:CK I *C 9.715 25.375 *L 0.00153 *D DFFHQX2
*I *165:CK I *C 9.715 38.135 *L 0.00179 *D DFFHQX1
*I *188:CK I *C 14.065 19.865 *L 0.00179 *D DFFHQX1

*CAP
1 *3:2 4.21766e-05
2 *3:4 5.62354e-05
3 *3:5 0.000182765
4 *3:6 0.000182765
5 *3:7 9.8412e-05
6 *3:8 0.000239001
7 *3:9 0.000344562
8 *3:10 0.000168706
9 *3:11 0.000359028
10 *3:12 0.000154647
11 *3:13 4.33977e-05
12 *3:14 0.000140589
13 *3:15 0.000159125
14 *3:17 0.000419511
15 *3:21 0.000390579
16 *3:22 0.000319031
17 *3:25 4.35042e-05
18 *3:26 0.000101261
19 *3:27 0.000319031
20 *3:30 5.80056e-05
21 *3:31 4.35042e-05
22 *3:33 0.000130513
23 *3:34 5.80056e-05
24 *3:37 0.000130513
25 *3:38 0.000246524
26 *3:39 0.000116011
27 *3:40 0.000246524
28 *3:41 0.00010151
29 *3:42 5.80056e-05
30 *3:43 0.000202523
31 *3:44 4.35042e-05
32 *3:45 0.000173591
33 *3:46 2.89318e-05
34 *3:48 0.000308848
35 *3:52 7.2507e-05
36 *3:53 0.000236341
37 *3:54 5.78636e-05
38 *3:55 0.000138399
39 *3:56 5.78636e-05
40 *3:57 0.000483332
41 *3 0.000344933
42 *3:60 0.000161155
43 *3:61 0.00032231
44 *3:62 6.91994e-05
45 *3:63 0.000161155
46 *3:64 6.91994e-05
47 *3:65 9.68792e-05
48 *3:67 0.000691994
49 *3:68 0.000636634
50 *3:69 6.71479e-05
51 *3:70 9.68791e-05
52 *194:CK 6.71479e-05
53 *3:73 0.000147725
54 *3:74 6.91994e-05
55 *3:75 0.000161155
56 *3:76 0.000110719
57 *3:77 0.000161155
58 *3:78 0.000110719
59 *3:79 0.000161155
60 *3:80 0.000165587
61 *3:81 5.37183e-05
62 *3:82 0.000165535
63 *3:83 4.02887e-05
64 *3:84 5.51526e-05
65 *3:85 0.000248988
66 *3:86 0.00022061
67 *3:87 0.000249118
68 *3:88 0.000207469
69 *3:89 0.000179246
70 *3:91 0.000235278
71 *3:93 2.65311e-05
72 *3:94 0.00011939
73 *3:95 0.000179918
74 *189:CK 2.65311e-05
75 *3:97 0.00011939
76 *3:98 0.000152239
77 *3:99 5.51526e-05
78 *3:101 5.51526e-05

*RES
1 *3:101 *188:CK 1.4
2 *3:99 *3:101 0.497155
3 *3:98 *165:CK 1.4
4 *3:97 *3:99 1.4
5 *3:95 *3:98 1.36718
6 *3:94 *3:97 1.11855
7 *3:93 *189:CK 0.248567
8 *3:91 *3:95 0.248578
9 *3:89 *3:94 1.4
10 *3:88 *3:93 1.4
11 *3:87 *191:CK 1.4
12 *3:87 *3:91 1.86433
13 *3:86 *157:CK 1.4
14 *3:86 *3:89 1.61575
15 *3:85 *3:88 1.86433
16 *3:85 *3:87 0.372866
17 *3:84 *3:86 0.372866
18 *3:83 *3:85 1.4
19 *3:82 *3:84 0.124289
20 *3:81 *3:83 0.372851
21 *3:80 *3:82 1.36718
22 *3:79 *3:81 0.124284
23 *3:78 *3:80 0.124289
24 *3:77 *3:79 1.36712
25 *3:76 *3:78 0.870021
26 *3:75 *3:77 0.124284
27 *3:74 *3:76 0.124289
28 *3:73 *3:75 1.36712
29 *3:70 *3:74 0.497155
30 *3:70 *3:73 1.4
31 *3:69 *194:CK 0.621418
32 *3:68 *190:CK 1.4
33 *3:68 *3:70 0.372866
34 *3:67 *3:69 1.4
35 *3:67 *3:68 5.34442
36 *3:65 *3:67 0.870021
37 *3:64 *173:CK 1.4
38 *3:63 *3:65 1.4
39 *3:62 *3:64 0.621444
40 *3:61 *3:63 1.4914
41 *3:61 *3:62 1.4
42 *3:60 *3:61 1.4914
43 *3:57 *3:60 1.4
44 *3:57 *3 3.10722
45 *3:56 *163:CK 1.4
46 *3:55 *3:57 1.24289
47 *3:54 *3:56 0.49715
48 *3:53 *3:55 1.4
49 *3:52 *3:54 1.4
50 *3:48 *3:53 2.11282
51 *3:48 *3:52 0.621416
52 *3:47 *164:CK 1.4
53 *3:47 *3:50 0.220714
54 *3:46 *162:CK 1.4
55 *3:45 *3:48 1.4
56 *3:44 *3:47 1.4
57 *3:43 *3:46 0.248575
58 *3:43 *3:45 1.49145
59 *3:42 *3:44 0.37285
60 *3:41 *3:43 1.4
61 *3:40 *3:42 0.124283
62 *3:39 *3:41 0.869983
63 *3:38 *3:40 1.98853
64 *3:37 *3:39 0.124283
65 *3:34 *3:38 0.124283
66 *3:33 *3:37 0.994266
67 *3:32 *167:CK 1.4
68 *3:32 *3:35 0.220714
69 *3:31 *3:34 0.37285
70 *3:30 *3:33 0.124283
71 *3:27 *3:32 1.4
72 *3:26 *3:31 1.4
73 *3:25 *3:30 0.37285
74 *3:24 *158:CK 1.4
75 *3:24 *3:28 0.220714
76 *3:22 *3:27 2.73423
77 *3:21 *3:26 0.870012
78 *3:21 *3:25 1.4
79 *3:18 *3:24 1.4
80 *3:18 *3:23 0.220714
81 *3:17 *3:22 1.4
82 *3:17 *3:21 2.48575
83 *3:16 *159:CK 1.4
84 *3:16 *3:19 0.220714
85 *3:15 *3:18 1.4
86 *3:15 *3:17 1.11859
87 *3:14 *3:16 1.4
88 *3:13 *3:15 0.248575
89 *3:12 *3:14 1.24289
90 *3:11 *3:13 0.124287
91 *3:10 *3:12 0.124289
92 *3:9 *3:11 2.98286
93 *3:8 *3:10 1.36718
94 *3:8 *3:9 1.4
95 *3:7 *3:8 0.745732
96 *3:6 *3:7 0.124289
97 *3:5 *3:6 1.49146
98 *3:4 *3:5 0.124289
99 *3:2 *3:4 0.372866
100 *3:1 *174:CK 1.4
101 *3:1 *3:2 1.4
102 *3:0 *3:1 0.220714
*END

*D_NET *4 0.0109636

*CONN
*I *267:B I *C 30.305 27.115 *L 0.00285 *D NAND3X1
*I *295:B I *C 33.495 27.695 *L 0.0109 *D NOR2X4
*I *228:B I *C 33.205 32.915 *L 0.00552 *D NOR3X2
*I *269:A I *C 26.245 27.695 *L 0.0215 *D NOR2X8
*I *274:A I *C 24.505 32.915 *L 0.0215 *D NOR2X8
*I *245:A I *C 34.365 19.865 *L 0.0111 *D NOR2X4
*I *257:B I *C 33.205 41.035 *L 0.0028 *D NOR2X1
*I *285:C I *C 36.975 16.965 *L 0.0229 *D NOR3X8
*I *155:A I *C 38.715 38.135 *L 0.0156 *D CLKINVX6
*I *254:C I *C 40.455 43.355 *L 0.00278 *D NOR3X1
*I *279:B I *C 25.085 38.135 *L 0.0169 *D NOR3X6
*P *4 I *C 28.855 52.78 *L 0
*I *263:B I *C 19.285 35.525 *L 0.00538 *D NOR2BX2
*I *294:B I *C 10.875 40.745 *L 0.011 *D NAND2X4
*I *227:A0 I *C 29.435 35.525 *L 0.00261 *D AOI31X1
*I *230:A I *C 15.225 32.625 *L 0.0168 *D NAND2X6

*CAP
1 *4:2 0.000203019
2 *4:4 0.000174017
3 *4:5 5.80056e-05
4 *4:6 5.80056e-05
5 *4:7 0.000145014
6 *4:8 4.35042e-05
7 *4:9 8.67954e-05
8 *4:10 0.000159515
9 *4:11 4.33977e-05
10 *4:12 0.000101261
11 *4:14 5.80056e-05
12 *4:15 5.78636e-05
13 *4:16 0.000188057
14 *4:17 2.90028e-05
15 *4:18 0.000242845
16 *4:19 0.000216989
17 *4:20 6.95124e-05
18 *4:21 0.000242617
19 *4:22 5.78636e-05
20 *4:24 0.000194071
21 *4:26 8.54284e-05
22 *4:27 0.000144659
23 *4:28 0.000138399
24 *4:29 7.11904e-05
25 *4:30 0.000144659
26 *4:31 0.000138399
27 *4:32 0.00012653
28 *4:33 5.78636e-05
29 *4:34 0.000166079
30 *4:35 0.00012653
31 *4:37 4.27142e-05
32 *4:38 0.000216989
33 *4:39 5.53595e-05
34 *4:41 0.000185095
35 *4:42 4.27142e-05
36 *4:43 0.000173591
37 *4:44 0.000275526
38 *4:45 0.000124559
39 *4:46 0.000185095
40 *4:49 0.000275526
41 *4:50 0.000124559
42 *4:52 4.33977e-05
43 *4:53 4.15196e-05
44 *4:54 7.23295e-05
45 *4:55 4.15196e-05
46 *4:56 0.000289318
47 *4:58 1.38399e-05
48 *4:59 0.000260386
49 *4:60 0.000340563
50 *4:61 0.000116011
51 *4:62 0.000181551
52 *4:63 0.000228303
53 *4:64 0.000116011
54 *4:65 0.00010151
55 *4:66 0.000443176
56 *4:67 6.91994e-05
57 *4:69 7.2507e-05
58 *4:70 0.000402887
59 *4:71 6.91994e-05
60 *4:72 6.91994e-05
61 *4:75 0.000751164
62 *4:76 8.67954e-05
63 *4:77 0.000373677
64 *4:78 6.91994e-05
65 *4 0.000751164
66 *4:81 8.67954e-05
67 *4:82 0.000193758
68 *4:83 0.000221438
69 *4:85 2.90028e-05
70 *4:87 4.15196e-05
71 *227:A0 2.90028e-05
72 *4:89 1.34296e-05
73 *230:A 1.34296e-05

*RES
1 *4:89 *230:A 0.124284
2 *4:87 *4:89 1.4
3 *4:85 *227:A0 0.248567
4 *4:83 *4:87 0.372866
5 *4:82 *294:B 1.4
6 *4:81 *4:85 1.4
7 *4:78 *263:B 1.4
8 *4:77 *4:83 1.61575
9 *4:77 *4:82 1.74004
10 *4:76 *4:81 0.745724
11 *4:75 *4 6.46294
12 *4:72 *279:B 1.4
13 *4:71 *4:78 0.621444
14 *4:70 *4:77 1.4
15 *4:69 *4:76 1.4
16 *4:69 *4:75 1.4
17 *4:68 *254:C 1.4
18 *4:68 *4:73 0.220714
19 *4:67 *4:72 0.621444
20 *4:66 *4:71 1.4
21 *4:66 *4:70 3.72851
22 *4:65 *4:69 0.621416
23 *4:64 *4:68 1.4
24 *4:63 *4:67 1.4
25 *4:63 *4:66 0.372851
26 *4:62 *4:65 0.248567
27 *4:61 *4:64 0.994266
28 *4:60 *4:63 1.73997
29 *4:60 *4:62 1.36712
30 *4:59 *4:61 1.4
31 *4:58 *4:60 1.4
32 *4:56 *4:59 2.23717
33 *4:55 *4:58 0.124289
34 *4:54 *155:A 1.4
35 *4:54 *4:56 0.248575
36 *4:53 *4:55 0.248578
37 *4:52 *4:54 0.372862
38 *4:50 *4:53 0.124289
39 *4:49 *4:52 1.4
40 *4:46 *285:C 1.4
41 *4:45 *4:50 0.99431
42 *4:44 *4:49 2.36138
43 *4:43 *257:B 1.4
44 *4:42 *245:A 1.4
45 *4:41 *4:46 1.61569
46 *4:39 *4:45 0.124289
47 *4:38 *4:44 1.4
48 *4:38 *4:43 1.49145
49 *4:37 *4:42 0.372852
50 *4:35 *4:41 1.4
51 *4:34 *274:A 1.4
52 *4:34 *4:39 0.372866
53 *4:33 *4:38 0.372862
54 *4:32 *4:37 1.4
55 *4:32 *4:36 0.220714
56 *4:32 *4:35 1.1186
57 *4:31 *4:34 1.1186
58 *4:30 *4:33 0.124287
59 *4:29 *4:32 1.4
60 *4:28 *4:31 0.124289
61 *4:27 *4:30 1.11859
62 *4:26 *4:29 0.62142
63 *4:24 *4:28 1.1186
64 *4:22 *4:27 0.124287
65 *4:21 *4:26 0.124284
66 *4:20 *269:A 1.4
67 *4:20 *4:24 0.621443
68 *4:19 *228:B 1.4
69 *4:19 *4:22 0.372862
70 *4:18 *4:21 1.98855
71 *4:17 *4:20 1.4
72 *4:16 *4:19 1.49145
73 *4:15 *4:18 0.124287
74 *4:14 *4:17 0.248567
75 *4:12 *4:16 0.124287
76 *4:11 *4:15 0.372862
77 *4:10 *4:14 0.248567
78 *4:9 *295:B 1.4
79 *4:9 *4:12 0.745724
80 *4:8 *4:11 1.4
81 *4:7 *4:10 1.11855
82 *4:6 *4:9 1.4
83 *4:6 *4:8 0.37285
84 *4:5 *4:7 0.124283
85 *4:4 *4:6 0.124283
86 *4:2 *4:5 0.37285
87 *4:2 *4:4 1.36712
88 *4:1 *267:B 1.4
89 *4:1 *4:2 1.4
90 *4:0 *4:1 0.220714
*END

*D_NET *5 0.00956834

*CONN
*I *289:B I *C 29.145 19.865 *L 0.00565 *D NOR3BX2
*I *245:B I *C 32.625 19.865 *L 0.0109 *D NOR2X4
*I *228:C I *C 32.625 33.205 *L 0.00525 *D NOR3X2
*I *252:A1 I *C 33.785 22.475 *L 0.00271 *D OAI32X1
*I *156:A I *C 23.925 35.525 *L 0.0156 *D CLKINVX6
*I *274:B I *C 23.925 32.915 *L 0.0219 *D NOR2X8
*I *234:B I *C 39.585 25.375 *L 0.0028 *D NOR2BX1
*I *261:B I *C 38.425 35.235 *L 0.00542 *D NOR2X2
*I *269:B I *C 25.665 27.695 *L 0.0219 *D NOR2X8
*I *251:A I *C 43.065 35.525 *L 0.0111 *D NOR2X4
*I *279:C I *C 25.665 37.845 *L 0.017 *D NOR3X6
*I *285:B I *C 42.775 17.255 *L 0.022 *D NOR3X8
*I *254:B I *C 40.165 43.065 *L 0.00272 *D NOR3X1
*P *5 I *C 53.94 29.725 *L 0

*CAP
1 *5:2 0.000168706
2 *5:4 0.000168706
3 *5:5 0.000170857
4 *5:6 0.000587976
5 *5:9 1.42381e-05
6 *5:10 0.000431813
7 *5:11 4.21766e-05
8 *5:12 0.000115727
9 *5:13 0.000182765
10 *5:14 0.000173591
11 *5:15 0.000140589
12 *5:16 2.84761e-05
13 *5:17 8.67954e-05
14 *5:18 2.90028e-05
15 *5:19 8.54284e-05
16 *5:20 2.84761e-05
17 *5:21 0.000673527
18 *228:C 2.90028e-05
19 *5:23 8.54284e-05
20 *5:25 0.000290028
21 *5:26 0.000398
22 *5:27 0.000140589
23 *5:28 5.80056e-05
24 *5:29 0.000124559
25 *5:30 0.000182765
26 *5:31 0.00010151
27 *5:32 5.53595e-05
28 *5:33 0.000179918
29 *5:34 5.62354e-05
30 *5:36 0.000232022
31 *5:38 4.15196e-05
32 *5:40 9.68791e-05
33 *5:42 0.000182765
34 *5:45 0.000174017
35 *5:46 0.000332716
36 *5:49 9.68791e-05
37 *5:50 0.000179918
38 *5:51 0.000168706
39 *5:52 1.44659e-05
40 *5:53 0.000332716
41 *5:54 0.000124559
42 *5:55 0.000166079
43 *5:56 0.000529657
44 *5:57 1.44659e-05
45 *5:58 2.90028e-05
46 *5:59 4.15196e-05
47 *5:61 0.000244895
48 *5:62 0.000313238
49 *5:65 2.90028e-05
50 *5:67 4.35042e-05
51 *5:68 0.000113905
52 *5:69 7.23295e-05
53 *5:70 5.80056e-05
54 *5:71 8.54284e-05
55 *5:72 7.23295e-05
56 *5:73 0.000130513
57 *5:76 0.000130513
58 *5:77 0.000174017
59 *5:78 0.000174017
60 *5:79 0.000127235
61 *5:80 0.000125051
62 *5:81 4.92666e-05
63 *5 3.69499e-05

*RES
1 *5:81 *5 0.372866
2 *5:80 *5:81 0.124289
3 *5:79 *5:80 0.994274
4 *5:78 *5:79 0.124283
5 *5:77 *5:78 1.36712
6 *5:76 *5:77 0.124283
7 *5:73 *5:76 0.994266
8 *5:72 *254:B 1.4
9 *5:71 *285:B 1.4
10 *5:70 *5:73 0.124283
11 *5:69 *5:72 0.621437
12 *5:68 *5:71 0.745704
13 *5:67 *5:70 0.37285
14 *5:65 *5:69 1.4
15 *5:62 *5:68 0.248568
16 *5:61 *5:67 1.4
17 *5:59 *279:C 1.4
18 *5:58 *5:65 0.248567
19 *5:57 *251:A 1.4
20 *5:57 *5:63 0.212143
21 *5:56 *5:62 2.48568
22 *5:56 *5:61 2.11287
23 *5:55 *269:B 1.4
24 *5:54 *5:59 0.372866
25 *5:53 *5:58 1.4
26 *5:52 *5:57 0.124287
27 *5:51 *5:56 1.4
28 *5:50 *5:55 1.49146
29 *5:49 *5:54 0.745732
30 *5:46 *5:53 2.85861
31 *5:45 *5:52 1.4
32 *5:42 *5:51 1.49146
33 *5:40 *5:50 0.124289
34 *5:38 *5:49 0.124289
35 *5:37 *261:B 1.4
36 *5:37 *5:47 0.220714
37 *5:36 *5:46 1.4
38 *5:36 *5:45 1.4914
39 *5:35 *234:B 1.4
40 *5:35 *5:43 0.03
41 *5:34 *5:42 0.124289
42 *5:33 *274:B 1.4
43 *5:33 *5:40 0.745732
44 *5:32 *156:A 1.4
45 *5:32 *5:38 0.248578
46 *5:31 *5:37 1.4
47 *5:31 *5:36 0.497133
48 *5:30 *5:35 1.4
49 *5:30 *5:34 0.372866
50 *5:29 *5:33 0.870021
51 *5:29 *5:32 0.248578
52 *5:28 *5:31 0.37285
53 *5:27 *5:30 1.24289
54 *5:26 *5:29 1.4
55 *5:25 *5:28 0.124283
56 *5:23 *5:27 1.4
57 *5:21 *5:26 3.47993
58 *5:21 *5:25 2.36138
59 *5:20 *252:A1 1.4
60 *5:19 *5:23 0.745704
61 *5:18 *228:C 0.248567
62 *5:17 *5:21 1.4
63 *5:16 *5:20 0.248568
64 *5:15 *5:19 1.4
65 *5:14 *5:18 1.4
66 *5:14 *5:17 0.745724
67 *5:13 *5:16 1.4
68 *5:13 *5:15 1.24289
69 *5:12 *5:14 0.745724
70 *5:11 *5:13 0.372866
71 *5:10 *5:12 0.248575
72 *5:9 *5:11 1.4
73 *5:6 *5:10 3.48002
74 *5:6 *5:9 0.124284
75 *5:5 *245:B 1.4
76 *5:5 *5:7 0.220714
77 *5:5 *5:6 1.49141
78 *5:4 *5:5 1.4
79 *5:2 *5:4 1.49146
80 *5:1 *289:B 1.4
81 *5:1 *5:2 1.4
82 *5:0 *5:1 0.220714
*END

*D_NET *6 0.00106124

*CONN
*P *6 I *C 0 16.965 *L 0
*I *221:A I *C 12.035 16.965 *L 0.00273 *D CLKINVX1

*CAP
1 *6:2 0.000265311
2 *6:3 0.000265311
3 *6 0.000265311
4 *221:A 0.000265311

*RES
1 *6:3 *221:A 2.48567
2 *6:2 *6 2.48567
3 *6:1 *6:3 1.4
4 *6:1 *6:2 1.4
5 *6:0 *6:1 0.220714
*END

*D_NET *7 0.000902057

*CONN
*P *7 I *C 0 22.185 *L 0
*I *222:A I *C 10.295 22.185 *L 0.00273 *D CLKINVX1

*CAP
1 *7:2 0.000225514
2 *7:3 0.000225514
3 *7 0.000225514
4 *222:A 0.000225514

*RES
1 *7:3 *222:A 2.11282
2 *7:2 *7 2.11282
3 *7:1 *7:3 1.4
4 *7:1 *7:2 1.4
5 *7:0 *7:1 0.220714
*END

*D_NET *8 0.000859493

*CONN
*P *8 I *C 0 32.625 *L 0
*I *220:A I *C 9.715 32.625 *L 0.00273 *D CLKINVX1

*CAP
1 *8:2 0.000214873
2 *8:3 0.000214873
3 *8 0.000214873
4 *220:A 0.000214873

*RES
1 *8:3 *220:A 1.98854
2 *8:2 *8 1.98854
3 *8:1 *8:3 1.4
4 *8:1 *8:2 1.4
5 *8:0 *8:1 0.220714
*END

*D_NET *9 0.00120948

*CONN
*I *223:A I *C 12.905 27.405 *L 0.00273 *D CLKINVX1
*P *9 I *C 0 27.405 *L 0

*CAP
1 *9:1 1.38399e-05
2 *9:2 0.000241732
3 *9:3 1.38399e-05
4 *9:4 0.000255162
5 *9:6 0.000349169
6 *9 0.000335739

*RES
1 *9:6 *9 3.10709
2 *9:4 *9:6 0.124284
3 *9:3 *223:A 1.4
4 *9:2 *9:4 2.2371
5 *9:1 *9:3 0.124289
6 *9:1 *9:2 1.4
7 *9:0 *9:1 0.0878571
*END

*D_NET *10 0.00089476

*CONN
*I *253:A1 I *C 41.905 43.065 *L 0.00278 *D AOI21X1
*P *10 I *C 41.905 52.78 *L 0

*CAP
1 *10:1 0.00044738
2 *10 0.00044738

*RES
1 *10:1 *10 3.85291
2 *253:A1 *10:1 1.4
*END

*D_NET *11 0.000879424

*CONN
*P *11 I *C 53.94 37.845 *L 0
*I *259:A I *C 44.515 37.845 *L 0.00784 *D INVX3

*CAP
1 *11:2 0.000207689
2 *11:3 0.000232022
3 *11 0.000207689
4 *259:A 0.000232022

*RES
1 *11:3 *259:A 1.98853
2 *11:2 *11 1.86427
3 *11:1 *11:3 1.4
4 *11:1 *11:2 1.4
5 *11:0 *11:1 0.220714
*END

*D_NET *12 0.00164699

*CONN
*I *227:A1 I *C 29.725 35.815 *L 0.00269 *D AOI31X1
*P *12 I *C 29.725 52.78 *L 0

*CAP
1 *12:4 0.000823493
2 *12 0.000823493

*RES
1 *12:4 *12 7.08438
2 *12:2 *12:5 0.220714
3 *12:2 *12:4 1.4
4 *12:1 *227:A1 1.4
5 *12:1 *12:2 1.4
6 *12:0 *12:1 0.220714
*END

*D_NET *13 0.0020231

*CONN
*I *276:B0 I *C 30.305 32.625 *L 0.00265 *D AOI22X1
*P *13 I *C 30.305 52.78 *L 0

*CAP
1 *13:4 0.000130193
2 *13:6 0.000144659
3 *13:7 0.000824557
4 *13:8 0.000824557
5 *13:9 5.68004e-05
6 *13 4.23345e-05

*RES
1 *13:9 *13 0.372861
2 *13:8 *13:9 0.124287
3 *13:7 *13:8 6.9601
4 *13:6 *13:7 0.124287
5 *13:4 *13:6 1.11859
6 *13:2 *13:5 0.220714
7 *13:2 *13:4 1.4
8 *13:1 *276:B0 1.4
9 *13:1 *13:2 1.4
10 *13:0 *13:1 0.220714
*END

*D_NET *14 0.00507551

*CONN
*I *211:A I *C 17.835 11.745 *L 0.00162 *D NOR2XL
*I *216:A I *C 18.995 19.865 *L 0.00157 *D NAND2XL
*P *14 O *C 18.705 0 *L 0
*I *157:Q O *C 17.545 22.185 *L 0 *D DFFQX4
*I *289:AN I *C 28.275 19.865 *L 0.00171 *D NOR3BX2
*P *154 O *C 18.125 0 *L 0
*I *197:A1 I *C 14.355 12.325 *L 0.00166 *D OAI21XL
*I *231:A I *C 14.355 14.935 *L 0.00273 *D CLKINVX1
*I *212:A I *C 30.595 14.645 *L 0.00157 *D NAND2XL
*I *184:A1N I *C 13.195 12.035 *L 0.0017 *D OAI2BB1X1
*I *210:B I *C 12.9 14.305 *L 0.00164 *D MXI2XL

*CAP
1 *14:1 0.000358492
2 *14:2 0.000386068
3 *14:3 1.32655e-05
4 *14:5 5.51526e-05
5 *14:6 0.000483509
6 *14:7 0.000212249
7 *14:8 4.13644e-05
8 *14:9 5.30621e-05
9 *14:10 0.000483509
10 *14:11 3.97966e-05
11 *14:12 0.000159186
12 *14:13 9.6517e-05
13 *216:A 5.30621e-05
14 *14:15 0.000185095
15 *14:16 0.000523949
16 *14:17 4.13644e-05
17 *14:18 8.27289e-05
18 *14:19 2.84761e-05
19 *14:20 0.000156619
20 *14 0.000551526
21 *14:22 8.27289e-05
22 *14:25 0.000112471
23 *154 2.75763e-05
24 *14:27 0.000179246
25 *14:29 0.000112471
26 *14:30 8.27289e-05
27 *14:31 6.89407e-05
28 *14:32 7.11904e-05
29 *14:34 6.89407e-05
30 *14:35 7.11904e-05
31 *14:36 8.27289e-05
32 *14:37 4.13644e-05
33 *14:39 6.89407e-05

*RES
1 *14:39 *210:B 1.4
2 *14:37 *184:A1N 1.4
3 *14:36 *14:39 0.621444
4 *14:35 *212:A 1.4
5 *14:34 *14:37 0.372866
6 *14:34 *14:36 0.124289
7 *14:32 *14:35 0.62142
8 *14:31 *14:34 0.124289
9 *14:30 *231:A 1.4
10 *14:29 *14:32 1.4
11 *14:27 *14:31 0.497155
12 *14:27 *14:30 0.745732
13 *14:25 *14:29 0.99431
14 *14:22 *197:A1 1.4
15 *14:22 *14:27 0.372866
16 *14 *154 0.248578
17 *14:20 *14:25 1.4
18 *14:19 *289:AN 1.4
19 *14:18 *157:Q 1.4
20 *14:17 *14:22 0.372866
21 *14:16 *14 4.72297
22 *14:15 *14:20 1.36712
23 *14:15 *14:19 0.248568
24 *14:13 *14:18 0.745732
25 *14:12 *14:17 1.4
26 *14:11 *14:16 1.4
27 *14:10 *14:15 1.4
28 *14:9 *216:A 0.497135
29 *14:8 *14:13 0.124289
30 *14:7 *14:12 1.4914
31 *14:7 *14:11 0.372851
32 *14:6 *14:10 4.47425
33 *14:5 *14:9 1.4
34 *14:5 *14:8 0.248578
35 *14:3 *14:7 0.124284
36 *14:2 *14:6 1.4
37 *14:2 *14:5 0.248578
38 *14:1 *211:A 1.4
39 *14:1 *14:3 1.4
40 *14:1 *14:2 3.23151
41 *14:0 *14:1 0.03
*END

*D_NET *15 0.00508274

*CONN
*I *266:A I *C 27.405 30.595 *L 0.00264 *D NAND3X1
*I *267:A I *C 30.595 27.405 *L 0.00264 *D NAND3X1
*I *158:Q O *C 34.075 30.885 *L 0 *D DFFHQX1
*I *240:A I *C 33.205 11.745 *L 0.00273 *D CLKINVX1
*I *213:A I *C 34.075 11.745 *L 0.00162 *D NOR2XL
*I *215:A I *C 30.885 11.745 *L 0.00162 *D NOR2XL
*P *15 O *C 32.915 0 *L 0
*I *243:A I *C 36.395 12.035 *L 0.00157 *D NAND2XL
*I *239:A I *C 37.845 14.935 *L 0.00264 *D NAND3X1

*CAP
1 *15:2 1.45014e-05
2 *15:4 0.000145014
3 *15:5 0.000130513
4 *15:6 2.89318e-05
5 *15:7 8.67954e-05
6 *15:8 0.000144659
7 *15:9 0.000130513
8 *15:10 8.67954e-05
9 *15:11 0.000174017
10 *15:13 4.35042e-05
11 *15:14 4.33977e-05
12 *15:15 2.89318e-05
13 *15:16 7.23295e-05
14 *15:17 2.89318e-05
15 *15:18 0.00032964
16 *15:20 0.000329184
17 *15:21 0.000541047
18 *15:22 0.000683427
19 *15:23 0.000185095
20 *15:24 0.000154647
21 *15:25 1.42381e-05
22 *15:26 0.000112471
23 *15:27 0.000112471
24 *15:30 7.02943e-05
25 *15:36 0.000384428
26 *15:37 1.42381e-05
27 *15 0.000384428
28 *15:43 0.000156619
29 *15:45 0.000142381
30 *15:46 4.21766e-05
31 *15:47 0.000112471
32 *243:A 4.21766e-05
33 *239:A 0.000112471

*RES
1 *15:47 *239:A 0.99431
2 *15:46 *243:A 0.372866
3 *15:45 *15:47 1.4
4 *15:43 *15:46 1.4
5 *15:43 *15:45 1.24284
6 *15:37 *15:44 0.0878571
7 *15:37 *15:43 0.124284
8 *15:36 *15 3.35567
9 *15:32 *215:A 1.4
10 *15:32 *15:40 0.03
11 *15:31 *213:A 1.4
12 *15:31 *15:38 0.220714
13 *15:30 *15:37 1.4
14 *15:29 *15:36 1.4
15 *15:29 *15:35 0.220714
16 *15:28 *240:A 1.4
17 *15:28 *15:33 0.03
18 *15:27 *15:32 1.4
19 *15:26 *15:31 1.4
20 *15:26 *15:30 0.621444
21 *15:25 *15:29 1.4
22 *15:24 *15:28 1.4
23 *15:24 *15:27 0.99431
24 *15:24 *15:26 0.372866
25 *15:23 *15:25 0.124284
26 *15:22 *15:24 1.4
27 *15:22 *15:23 1.49141
28 *15:21 *15:22 4.47423
29 *15:20 *15:21 0.248568
30 *15:18 *15:20 2.60999
31 *15:17 *158:Q 1.4
32 *15:16 *15:18 0.248575
33 *15:15 *15:17 0.248575
34 *15:14 *15:16 0.372862
35 *15:13 *15:15 1.4
36 *15:11 *15:14 1.4
37 *15:11 *15:13 0.37285
38 *15:10 *267:A 1.4
39 *15:9 *15:11 1.11855
40 *15:8 *15:10 0.745724
41 *15:8 *15:9 1.4
42 *15:7 *15:8 0.49715
43 *15:6 *15:7 0.248575
44 *15:5 *15:6 1.4
45 *15:4 *15:5 1.11855
46 *15:2 *15:4 0.124283
47 *15:1 *266:A 1.4
48 *15:1 *15:2 1.4
49 *15:0 *15:1 0.220714
*END

*D_NET *16 0.00198934

*CONN
*I *159:Q O *C 39.295 21.895 *L 0 *D DFFHQX1
*I *234:AN I *C 40.165 25.085 *L 0.00174 *D NOR2BX1
*I *217:A I *C 41.035 25.085 *L 0.00157 *D NAND2XL
*I *218:B I *C 41.035 27.405 *L 0.0028 *D NOR2BX1
*P *16 O *C 53.94 25.375 *L 0
*I *181:B0 I *C 43.065 27.405 *L 0.00159 *D AOI22XL

*CAP
1 *16:3 4.21766e-05
2 *16:4 4.21766e-05
3 *16:5 8.54284e-05
4 *16:6 0.000128143
5 *16:7 8.54284e-05
6 *16:9 0.000129396
7 *16:11 8.66815e-05
8 *16:12 9.8412e-05
9 *16:14 0.000351471
10 *16:15 0.000281177
11 *16:16 7.22156e-05
12 *16:17 0.000271269
13 *16:18 7.22156e-05
14 *16 0.000243152

*RES
1 *16:18 *181:B0 1.4
2 *16:17 *16 2.23718
3 *16:16 *16:18 0.621435
4 *16:15 *16:17 0.248578
5 *16:14 *16:16 1.4
6 *16:14 *16:15 2.2372
7 *16:12 *16:14 0.870021
8 *16:11 *218:B 1.4
9 *16:9 *16:12 1.4
10 *16:9 *16:11 0.745723
11 *16:7 *217:A 1.4
12 *16:7 *16:9 0.372852
13 *16:6 *234:AN 1.4
14 *16:6 *16:7 0.372852
15 *16:5 *16:6 0.745704
16 *16:4 *16:5 1.4
17 *16:3 *16:4 0.372866
18 *16:1 *16:3 1.4
19 *16:1 *159:Q 1.4
20 *16:0 *16:1 0.220714
*END

*D_NET *17 0.00135767

*CONN
*I *164:Q O *C 39.295 41.325 *L 0 *D DFFHQX1
*I *255:B I *C 38.715 41.035 *L 0.00168 *D NAND2BXL
*I *280:A I *C 39.285 43.2925 *L 0.00163 *D INVXL
*P *17 O *C 39.005 52.78 *L 0

*CAP
1 *17:0 7.23295e-05
2 *17:1 2.89318e-05
3 *17:2 8.67954e-05
4 *17:4 7.23295e-05
5 *17:6 0.000101261
6 *17:7 0.000303784
7 *17:8 0.00024592
8 *17:10 0.000230391
9 *17 0.000215925

*RES
1 *17:10 *17 1.86431
2 *17:8 *17:10 0.124287
3 *17:7 *280:A 1.4
4 *17:7 *17:8 1.9886
5 *17:6 *17:7 0.621437
6 *17:4 *17:6 0.248575
7 *17:2 *255:B 1.4
8 *17:2 *17:4 0.372862
9 *17:1 *164:Q 1.4
10 *17:0 *17:2 0.372862
11 *17:0 *17:1 0.248575
*END

*D_NET *18 0.00182136

*CONN
*I *290:A I *C 28.845 40.8075 *L 0.00163 *D INVXL
*I *163:Q O *C 29.145 42.775 *L 0 *D DFFHQX1
*P *18 O *C 30.015 52.78 *L 0
*I *249:B I *C 32.045 41.035 *L 0.00168 *D NAND2BXL

*CAP
1 *290:A 1.45014e-05
2 *18:1 1.45014e-05
3 *18:2 0.000101261
4 *18:3 0.000144659
5 *18:5 0.00031825
6 *18:6 0.00031825
7 *18:7 0.000145014
8 *18:8 0.000201459
9 *18:9 0.000145014
10 *18 0.000158062
11 *18:11 0.000130193
12 *18:12 0.000130193

*RES
1 *18:12 *249:B 1.4
2 *18:11 *18:12 1.11859
3 *18:9 *18:11 1.4
4 *18:8 *18 1.36716
5 *18:7 *18:9 1.24283
6 *18:6 *18:8 0.372862
7 *18:5 *18:7 1.4
8 *18:5 *18:6 2.36146
9 *18:3 *18:5 0.372862
10 *18:3 *163:Q 1.4
11 *18:2 *18:3 0.870012
12 *18:1 *18:2 1.4
13 *290:A *18:1 0.124283
*END

*D_NET *19 0.00255672

*CONN
*I *162:Q O *C 27.695 37.555 *L 0 *D DFFHQX1
*I *192:AN I *C 27.985 32.915 *L 0.00174 *D NOR2BX1
*P *19 O *C 29.145 52.78 *L 0
*I *229:B I *C 31.755 35.815 *L 0.00284 *D NAND2BX1

*CAP
1 *19:0 5.78636e-05
2 *19:1 0.000303784
3 *19:2 0.000202523
4 *19:4 0.000274852
5 *19:5 0.000188518
6 *19:6 0.000188057
7 *19:7 0.000490778
8 *19:8 0.000188518
9 *19:10 0.000525669